
 Starting FDS ...

 MPI Process      0 started on SCIserver

 Reading FDS input file ...


 Fire Dynamics Simulator

 Current Date     : February 25, 2026  17:10:17
 Revision         : FDS-6.10.1-0-g12efa16-release
 Revision Date    : Wed Apr 2 17:38:58 2025 -0400
 Compiler         : Intel(R) Fortran Compiler for applications running on Intel(R) 64, Version 2025.1.0 Build 20250317
 Compilation Date : Apr 04, 2025 08:51:41

 Number of MPI Processes:  1

 MPI version: 3.1
 MPI library version: Intel(R) MPI Library 2021.14 for Linux* OS

 Hypre library version: v2.32.0
 Sundials library version: v6.7.0

 Job TITLE        : MVP auto-generated case
 Job ID string    : case_000002

 Time Step:       1, Simulation Time:   0.23046 s
 Time Step:       2, Simulation Time:   0.46091 s
 Time Step:       3, Simulation Time:   0.69137 s
 Time Step:       4, Simulation Time:   0.92183 s
 Time Step:       5, Simulation Time:   1.00803 s
 Time Step:       6, Simulation Time:   1.10284 s
 Time Step:       7, Simulation Time:   1.18032 s
 Time Step:       8, Simulation Time:   1.25779 s
 Time Step:       9, Simulation Time:   1.31939 s
 Time Step:      10, Simulation Time:   1.38099 s
 Time Step:      20, Simulation Time:   1.84323 s
 Time Step:      30, Simulation Time:   2.20143 s
 Time Step:      40, Simulation Time:   2.53854 s
 Time Step:      50, Simulation Time:   2.93538 s
 Time Step:      60, Simulation Time:   3.36681 s
 Time Step:      70, Simulation Time:   3.79824 s
 Time Step:      80, Simulation Time:   4.22967 s
 Time Step:      90, Simulation Time:   4.66109 s
 Time Step:     100, Simulation Time:   5.09252 s
 Time Step:     200, Simulation Time:   9.40680 s
 Time Step:     300, Simulation Time:  13.39503 s
 Time Step:     400, Simulation Time:  17.68189 s
 Time Step:     500, Simulation Time:  21.73069 s
 Time Step:     600, Simulation Time:  25.78443 s
 Time Step:     700, Simulation Time:  29.69500 s
 Time Step:     754, Simulation Time:  31.80000 s

STOP: FDS completed successfully (CHID: case_000002)
